$ *******************************************************************
$  Abaqus/toNastran Release 6.14-2
$
$   reading Abaqus input: beamHex01_dynIMP_al0be1e-5_02.inp
$ creating Nastran input: beamHex01_dynIMP_al0be1e-5_02.bdf
$ writing diagnostics to: beamHex01_dynIMP_al0be1e-5_02.log
$
$----------------------------------------------
$The following Abaqus keywords were recognized:
$            keyword number
$------------------- ------
$           boundary      6
$            damping      1
$            density      1
$            elastic      1
$            element      1
$              elset      4
$            endstep      1
$            heading      1
$           material      1
$               node      2
$               nset      9
$       solidsection      1
$               step      1
$            surface      1
$             system      1
$-------------------------------------------
$The following Abaqus keywords were ignored:
$            keyword number
$------------------- ------
$          amplitude      2
$            dynamic      1
$      elementoutput      1
$                mpc      1
$             output      2
$           preprint      1
$            restart      1
CEND
SPC = 2001
BEGIN BULK
$ -----|-------|-------|-------|-------|-------|-------|-------|-------|
$ next line from NSET=SET-8
SPC*                2001             313               1   0.000000e+000
$ next line from NSET=SET-8
SPC*                2001             313               2   0.000000e+000
$ next line from NSET=SET-8
SPC*                2001             313               3   0.000000e+000
$ next line from NSET=SET-8
SPC*                2001             313               4   0.000000e+000
$ next line from NSET=SET-8
SPC*                2001             313               5   0.000000e+000
$ next line from NSET=SET-9
SPC*                2001             313               6   5.235980e+002
$
$ -----|-------|-------|-------|-------|-------|-------|-------|-------|
$ GRIDs defined in local coordinates
$ -----|-------|-------|-------|-------|-------|-------|-------|-------|
GRID*                  1                   0.000000e+000  -1.500000e+001
*          1.000000e+001                
GRID*                  2                   0.000000e+000  -1.500000e+001
*         -1.000000e+001                
GRID*                  3                   0.000000e+000   1.500000e+001
*          1.000000e+001                
GRID*                  4                   0.000000e+000   1.500000e+001
*         -1.000000e+001                
GRID*                  5                   2.000000e+002  -1.500000e+001
*          1.000000e+001                
GRID*                  6                   2.000000e+002  -1.500000e+001
*         -1.000000e+001                
GRID*                  7                   2.000000e+002   1.500000e+001
*          1.000000e+001                
GRID*                  8                   2.000000e+002   1.500000e+001
*         -1.000000e+001                
GRID*                  9                   0.000000e+000  -1.500000e+001
*          0.000000e+000                
GRID*                 10                   0.000000e+000   1.500000e+001
*          0.000000e+000                
GRID*                 11                   2.000000e+002  -1.500000e+001
*          0.000000e+000                
GRID*                 12                   2.000000e+002   1.500000e+001
*          0.000000e+000                
GRID*                 13                   8.000000e+000  -1.500000e+001
*         -1.000000e+001                
GRID*                 14                   1.600000e+001  -1.500000e+001
*         -1.000000e+001                
GRID*                 15                   2.400000e+001  -1.500000e+001
*         -1.000000e+001                
GRID*                 16                   3.200000e+001  -1.500000e+001
*         -1.000000e+001                
GRID*                 17                   4.000000e+001  -1.500000e+001
*         -1.000000e+001                
GRID*                 18                   4.800000e+001  -1.500000e+001
*         -1.000000e+001                
GRID*                 19                   5.600000e+001  -1.500000e+001
*         -1.000000e+001                
GRID*                 20                   6.400000e+001  -1.500000e+001
*         -1.000000e+001                
$ ... 586 like lines cut
$
$ -----|-------|-------|-------|-------|-------|-------|-------|-------|
$ 3D solid elements
$ -----|-------|-------|-------|-------|-------|-------|-------|-------|
$
$ PSOLID for solid section
$        elset = PART-1-1_SET-1
$     material = MATERIAL-1
PSOLID*                1               1
*       
CHEXA*               383               1               1               9
*                    165             157              37             109
*                    265             241
CHEXA*               384               1              37             109
*                    265             241              38             110
*                    266             242
CHEXA*               385               1              38             110
*                    266             242              39             111
*                    267             243
CHEXA*               386               1              39             111
*                    267             243              40             112
*                    268             244
CHEXA*               387               1              40             112
*                    268             244              41             113
*                    269             245
CHEXA*               388               1              41             113
*                    269             245              42             114
*                    270             246
CHEXA*               389               1              42             114
*                    270             246              43             115
*                    271             247
CHEXA*               390               1              43             115
*                    271             247              44             116
*                    272             248
CHEXA*               391               1              44             116
*                    272             248              45             117
*                    273             249
CHEXA*               392               1              45             117
*                    273             249              46             118
*                    274             250
CHEXA*               393               1              46             118
*                    274             250              47             119
*                    275             251
CHEXA*               394               1              47             119
*                    275             251              48             120
*                    276             252
CHEXA*               395               1              48             120
*                    276             252              49             121
*                    277             253
CHEXA*               396               1              49             121
*                    277             253              50             122
*                    278             254
CHEXA*               397               1              50             122
*                    278             254              51             123
*                    279             255
CHEXA*               398               1              51             123
*                    279             255              52             124
*                    280             256
CHEXA*               399               1              52             124
*                    280             256              53             125
*                    281             257
CHEXA*               400               1              53             125
*                    281             257              54             126
*                    282             258
CHEXA*               401               1              54             126
*                    282             258              55             127
*                    283             259
CHEXA*               402               1              55             127
*                    283             259              56             128
*                    284             260
$ ... 390 like lines cut
$
$ MAT1 from material MATERIAL-1
MAT1*                  1   2.100000e+005                   3.000000e-001
*          7.850000e-009   0.000000e+000   0.000000e+000   0.000000e+000
$ -----|-------|-------|-------|-------|-------|-------|-------|-------|
ENDDATA
