*Heading
** Job name: beamHex01_dynIMP_al0be1e-5_02 Model name: beam_hexa_coarse_01_mod
** Generated by: Abaqus/CAE Student Edition 2018
*Preprint, echo=NO, model=NO, history=NO, contact=NO
**
** PARTS
**
*Part, name=PART-1
*Node
      1,           0.,         -15.,          10.
      2,           0.,         -15.,         -10.
      3,           0.,          15.,          10.
      4,           0.,          15.,         -10.
      5,         200.,         -15.,          10.
      6,         200.,         -15.,         -10.
      7,         200.,          15.,          10.
      8,         200.,          15.,         -10.
      9,           0.,         -15.,           0.
     10,           0.,          15.,           0.
     11,         200.,         -15.,           0.
     12,         200.,          15.,           0.
     13,           8.,         -15.,         -10.
     14,          16.,         -15.,         -10.
     15,          24.,         -15.,         -10.
     16,          32.,         -15.,         -10.
     17,          40.,         -15.,         -10.
     18,          48.,         -15.,         -10.
     19,          56.,         -15.,         -10.
     20,          64.,         -15.,         -10.
** ... 292 like lines cut
*Element, type=C3D8
383,   1,   9, 165, 157,  37, 109, 265, 241
384,  37, 109, 265, 241,  38, 110, 266, 242
385,  38, 110, 266, 242,  39, 111, 267, 243
386,  39, 111, 267, 243,  40, 112, 268, 244
387,  40, 112, 268, 244,  41, 113, 269, 245
388,  41, 113, 269, 245,  42, 114, 270, 246
389,  42, 114, 270, 246,  43, 115, 271, 247
390,  43, 115, 271, 247,  44, 116, 272, 248
391,  44, 116, 272, 248,  45, 117, 273, 249
392,  45, 117, 273, 249,  46, 118, 274, 250
393,  46, 118, 274, 250,  47, 119, 275, 251
394,  47, 119, 275, 251,  48, 120, 276, 252
395,  48, 120, 276, 252,  49, 121, 277, 253
396,  49, 121, 277, 253,  50, 122, 278, 254
397,  50, 122, 278, 254,  51, 123, 279, 255
398,  51, 123, 279, 255,  52, 124, 280, 256
399,  52, 124, 280, 256,  53, 125, 281, 257
400,  53, 125, 281, 257,  54, 126, 282, 258
401,  54, 126, 282, 258,  55, 127, 283, 259
402,  55, 127, 283, 259,  56, 128, 284, 260
** ... 130 like lines cut
*Elset, elset=Set-1, generate
 383,  532,    1
** Section: Section-1
*Solid Section, elset=Set-1, material=Material-1
,
*End Part
**  
**
** ASSEMBLY
**
*Assembly, name=Assembly
**  
*Instance, name=PART-1-1, part=PART-1
*End Instance
**  
*Node
      1,           0.,           0.,           0.
*Elset, elset=C3D8, instance=PART-1-1, generate
 383,  532,    1
*Nset, nset=NALL, instance=PART-1-1, generate
   1,  312,    1
*Nset, nset=Set-3, instance=PART-1-1
   1,   2,   3,   4,   9,  10, 157, 158, 159, 160, 165, 166
*Nset, nset=Set-4, instance=PART-1-1
   5,   6,   7,   8,  11,  12, 161, 162, 163, 164, 167, 168
*Elset, elset=Set-5, instance=PART-1-1, generate
 383,  532,    1
*Nset, nset=Set-8
 1,
*Nset, nset=Set-9
 1,
*Nset, nset=m_Set-6
 1,
*Nset, nset=s_Set-6, instance=PART-1-1
   1,   2,   3,   4,   9,  10, 157, 158, 159, 160, 165, 166
*Nset, nset=stress, instance=PART-1-1
 112, 153
*Elset, elset=stress_el, instance=PART-1-1
 387, 437
*Surface, type=NODE, name=s_Set-6_CNS_, internal
s_Set-6, 1.
** Constraint: Constraint-1
*MPC
BEAM, s_Set-6, m_Set-6
*End Assembly
*Amplitude, name=Amp-1
             0.,              0.,            0.05, 523.598775598299
*Amplitude, name=Amp-2, time=TOTAL TIME
             0.,              0.,            0.05,              1.,             0.1,              1.
** 
** MATERIALS
** 
*Material, name=Material-1
*Damping, beta=1e-05
*Density
 7.85e-09,
*Elastic
210000., 0.3
** 
** BOUNDARY CONDITIONS
** 
** Name: BC-1 Type: Displacement/Rotation
*Boundary
Set-8, 1, 1
Set-8, 2, 2
Set-8, 3, 3
Set-8, 4, 4
Set-8, 5, 5
** ----------------------------------------------------------------
** 
** STEP: Step-1
** 
*Step, name=Step-1, nlgeom=YES, inc=10000
*Dynamic
1e-05,0.15,1.5e-06
** 
** BOUNDARY CONDITIONS
** 
** Name: BC-2 Type: Velocity/Angular velocity
*Boundary, amplitude=Amp-2, type=VELOCITY
Set-9, 6, 6, 523.598
** 
** OUTPUT REQUESTS
** 
*Restart, write, frequency=0
** 
** FIELD OUTPUT: stress
** 
** 
** FIELD OUTPUT: F-Output-1
** 
*Output, field, variable=PRESELECT
** 
** HISTORY OUTPUT: stress
** 
*Output, history, frequency=1
*Element Output, elset=stress_el
MISES, 
*End Step
